OpenDSS/ckt5_VLN_elem.Txt

NODE-GROUND VOLTAGES BY CIRCUIT ELEMENT

Power Delivery Elements

Bus                            (node ref)  Phase    Magnitude, kV (pu)    Angle

ELEMENT = "Vsource.SOURCE"
SOURCEBUS                       (  1)    1           69.715 (    1.05) /_    0.0
SOURCEBUS                       (  2)    2           69.715 (    1.05) /_ -120.0
SOURCEBUS                       (  3)    3           69.715 (    1.05) /_  120.0
------------
SOURCEBUS                       (  0)    1                0 (       0) /_    0.0
SOURCEBUS                       (  0)    2                0 (       0) /_    0.0
SOURCEBUS                       (  0)    3                0 (       0) /_    0.0



ELEMENT = "Line.MDV201_CONNECTOR"
_MDV_SUB_1_LSB                  (  4)    1           7.3601 (   1.022) /_  -32.6
_MDV_SUB_1_LSB                  (  5)    2            7.349 (   1.021) /_ -152.8
_MDV_SUB_1_LSB                  (  6)    3           7.3687 (   1.023) /_   87.5
------------
MDV201                          (  7)    1           7.3601 (   1.022) /_  -32.6
MDV201                          (  8)    2            7.349 (   1.021) /_ -152.8
MDV201                          (  9)    3           7.3687 (   1.023) /_   87.5


ELEMENT = "Line.MDV201_HN_1_275_A94744"
94743                           ( 10)    1           7.1474 (  0.9928) /_  -33.3
------------
94744                           ( 11)    1           7.1473 (  0.9927) /_  -33.3

ELEMENT = "Line.MDV201_HN_2_466_C62235"
62244                           ( 12)    1           7.2168 (   1.002) /_   86.2
------------
62235                           ( 13)    1            7.216 (   1.002) /_   86.2

ELEMENT = "Line.MDV201_DA_8_780_A1144234"
1144235                         ( 14)    1           7.1842 (  0.9979) /_  -33.8
------------
1144234                         ( 15)    1           7.1838 (  0.9978) /_  -33.8

ELEMENT = "Line.MDV201_1160486ELB-1_SW"
39754                           ( 16)    1           7.0187 (  0.9749) /_ -154.4
------------
MDV201_1160486ELB_INT           ( 17)    1           7.0187 (  0.9749) /_ -154.4

ELEMENT = "Line.MDV201_1160486ELB"
MDV201_1160486ELB_INT           ( 17)    1           7.0187 (  0.9749) /_ -154.4
------------
1160486                         ( 18)    1           7.0187 (  0.9749) /_ -154.4

ELEMENT = "Line.MDV201_HN_2P009_B1160473"
1160476                         ( 19)    1           7.0236 (  0.9756) /_ -154.4
------------
1160473                         ( 20)    1           7.0225 (  0.9754) /_ -154.4

ELEMENT = "Line.MDV201_HN_2_088_ABC8164"
8163                            ( 21)    1           7.2369 (   1.005) /_  -33.5
8163                            ( 22)    2           7.2316 (   1.004) /_ -153.7
8163                            ( 23)    3           7.2414 (   1.006) /_   86.3
------------
8164                            ( 24)    1           7.2344 (   1.005) /_  -33.5
8164                            ( 25)    2           7.2298 (   1.004) /_ -153.7
8164                            ( 26)    3           7.2354 (   1.005) /_   86.2

ELEMENT = "Line.MDV201_HN_2_319_B39610"
103730                          ( 27)    1           7.1202 (   0.989) /_ -154.3
------------
39610                           ( 28)    1           7.1202 (   0.989) /_ -154.3

ELEMENT = "Line.MDV201_HN_2_417_A842"
835                             ( 29)    1           7.2889 (   1.012) /_  -33.0
------------
842                             ( 30)    1           7.2881 (   1.012) /_  -33.0



ELEMENT = "Line.MDV201_HN_2_941_B39760"
39775                           ( 31)    1           7.0258 (  0.9759) /_ -154.4
------------
39760                           ( 32)    1           7.0254 (  0.9758) /_ -154.4

ELEMENT = "Line.MDV201_1160480ELB-1_SW"
15004                           ( 33)    1           7.0214 (  0.9753) /_ -154.4
------------
MDV201_1160480ELB_INT           ( 34)    1           7.0214 (  0.9752) /_ -154.4

ELEMENT = "Line.MDV201_1160480ELB"
MDV201_1160480ELB_INT           ( 34)    1           7.0214 (  0.9752) /_ -154.4
------------
1160480                         ( 35)    1           7.0214 (  0.9752) /_ -154.4

ELEMENT = "Line.C_1P034_SW"
1160492                         ( 36)    1           7.1655 (  0.9953) /_  -33.3
------------
MDV201_8088ELB_INT              ( 37)    1           7.1655 (  0.9953) /_  -33.3

ELEMENT = "Line.MDV201_8088ELB"
MDV201_8088ELB_INT              ( 37)    1           7.1655 (  0.9953) /_  -33.3
------------
8088                            ( 38)    1           7.1655 (  0.9953) /_  -33.3

ELEMENT = "Line.MDV201_HN_2_499_ABC834"
829                             ( 39)    1           7.2137 (   1.002) /_  -33.3
829                             ( 40)    2           7.1975 (  0.9997) /_ -154.1
829                             ( 41)    3           7.2919 (   1.013) /_   86.4
------------
834                             ( 42)    1           7.2058 (   1.001) /_  -33.3
834                             ( 43)    2           7.1877 (  0.9984) /_ -154.1
834                             ( 44)    3           7.2868 (   1.012) /_   86.4

ELEMENT = "Line.MDV201_1160478ELB-1_SW"
15005                           ( 45)    1             7.02 (  0.9751) /_ -154.4
------------
MDV201_1160478ELB_INT           ( 46)    1             7.02 (  0.9751) /_ -154.4

ELEMENT = "Line.MDV201_1160478ELB"
MDV201_1160478ELB_INT           ( 46)    1             7.02 (  0.9751) /_ -154.4
------------
1160478                         ( 47)    1             7.02 (  0.9751) /_ -154.4

ELEMENT = "Line.MDV201_HN_2_217_ABC8160"
44582                           ( 48)    1            7.241 (   1.006) /_  -33.4
44582                           ( 49)    2           7.2353 (   1.005) /_ -153.7
44582                           ( 50)    3           7.2527 (   1.007) /_   86.3
------------
8160                            ( 51)    1           7.2403 (   1.006) /_  -33.4
8160                            ( 52)    2           7.2346 (   1.005) /_ -153.7
8160                            ( 53)    3           7.2506 (   1.007) /_   86.3

ELEMENT = "Line.MDV201_HN_2_942_C89791"
89783                           ( 54)    1           7.1989 (  0.9999) /_   86.1
------------
89791                           ( 55)    1           7.1978 (  0.9998) /_   86.1

ELEMENT = "Line.MDV201_99422FUSE"
6584                            ( 56)    1           7.1871 (  0.9983) /_  -33.8
------------
99422                           ( 57)    1           7.1871 (  0.9983) /_  -33.8

ELEMENT = "Line.MDV201_HN_2_140_ABC8124"
8113                            ( 58)    1            7.231 (   1.004) /_  -33.3
8113                            ( 59)    2           7.2248 (   1.004) /_ -154.0
8113                            ( 60)    3           7.3002 (   1.014) /_   86.5
------------
8124                            ( 61)    1           7.2298 (   1.004) /_  -33.3
8124                            ( 62)    2           7.2251 (   1.004) /_ -154.0
8124                            ( 63)    3           7.2995 (   1.014) /_   86.5

ELEMENT = "Line.MDV201_HN_2_818_ABC63707"
14880                           ( 64)    1           7.2394 (   1.006) /_  -33.2
14880                           ( 65)    2           7.2044 (   1.001) /_ -154.1
14880                           ( 66)    3           7.3104 (   1.015) /_   86.4
------------
63707                           ( 67)    1           7.2386 (   1.005) /_  -33.2
63707                           ( 68)    2           7.2007 (       1) /_ -154.1
63707                           ( 69)    3           7.3115 (   1.016) /_   86.4

ELEMENT = "Line.MDV201_DA_8_731_C74450"
74449                           ( 70)    1            7.147 (  0.9927) /_   85.9
------------
74450                           ( 71)    1           7.1469 (  0.9927) /_   85.9

ELEMENT = "Line.MDV201_100494FUSE"
14989                           ( 72)    1           7.0831 (  0.9838) /_ -154.4
------------
100494                          ( 73)    1           7.0831 (  0.9838) /_ -154.4

ELEMENT = "Line.MDV201_107110FUSE"
63683                           ( 74)    1           7.2473 (   1.007) /_  -33.3
63683                           ( 75)    2           7.3078 (   1.015) /_   86.5
------------
107110                          ( 76)    1           7.2473 (   1.007) /_  -33.3
107110                          ( 77)    2           7.3078 (   1.015) /_   86.5

ELEMENT = "Line.MDV201_HN_2_477_C8121"
1144242                         ( 78)    1           7.2991 (   1.014) /_   86.5
------------
8121                            ( 79)    1           7.2986 (   1.014) /_   86.5

ELEMENT = "Line.MDV201_HN_2_876_C63671"
63668                           ( 80)    1           7.2736 (    1.01) /_   86.3
------------
63671                           ( 81)    1           7.2729 (    1.01) /_   86.3

ELEMENT = "Line.MDV201_HN_2_671_C89781"
89784                           ( 82)    1           7.2041 (   1.001) /_   86.1
------------
89781                           ( 83)    1            7.202 (       1) /_   86.1

ELEMENT = "Line.MDV201_DA_8_930_A39751"
39734                           ( 84)    1           7.1594 (  0.9944) /_  -33.9
------------
39751                           ( 85)    1           7.1589 (  0.9944) /_  -33.9

ELEMENT = "Line.MDV201_HN_2_394_ABC63658"
63657                           ( 86)    1           7.2679 (   1.009) /_  -33.2
63657                           ( 87)    2           7.2567 (   1.008) /_ -153.7
63657                           ( 88)    3           7.3151 (   1.016) /_   86.7
------------
63658                           ( 89)    1           7.2646 (   1.009) /_  -33.2
63658                           ( 90)    2           7.2528 (   1.007) /_ -153.7
63658                           ( 91)    3           7.3148 (   1.016) /_   86.6

ELEMENT = "Line.MDV201_DA_8_687_B74448"
74445                           ( 92)    1           7.1974 (  0.9997) /_ -153.8
------------
74448                           ( 93)    1           7.1959 (  0.9995) /_ -153.8

ELEMENT = "Line.MDV201_1012643FUSE"
1012641                         ( 94)    1           7.2491 (   1.007) /_   86.3
------------
1012643                         ( 95)    1           7.2491 (   1.007) /_   86.3

ELEMENT = "Line.MDV201_HN_1_238_A39569"
39570                           ( 96)    1            7.148 (  0.9928) /_  -33.3
------------
39569                           ( 97)    1           7.1479 (  0.9928) /_  -33.3

ELEMENT = "Line.MDV201_14869FUSE"
14858                           ( 98)    1           7.2479 (   1.007) /_  -33.3
------------
14869                           ( 99)    1           7.2479 (   1.007) /_  -33.3

ELEMENT = "Line.MDV201_HN_1_156_C89790"
89796                           (100)    1           7.2548 (   1.008) /_   86.2
------------
89790                           (101)    1           7.2547 (   1.008) /_   86.2

ELEMENT = "Line.MDV201_HN_2_318_C28272"
28271                           (102)    1            7.318 (   1.016) /_   86.3
------------
28272                           (103)    1           7.3178 (   1.016) /_   86.3

ELEMENT = "Line.MDV201_C_1_140_ABC69477"
69478                           (104)    1           7.1629 (  0.9949) /_  -33.3
69478                           (105)    2           7.1333 (  0.9908) /_ -154.3
69478                           (106)    3           7.2809 (   1.011) /_   86.3
------------
69477                           (107)    1           7.1629 (  0.9949) /_  -33.3
69477                           (108)    2           7.1333 (  0.9908) /_ -154.3
69477                           (109)    3           7.2809 (   1.011) /_   86.3

ELEMENT = "Line.MDV201_HN_2_948_C8176"
8175                            (110)    1            7.196 (  0.9995) /_   86.1
------------
8176                            (111)    1           7.1959 (  0.9995) /_   86.1

ELEMENT = "Line.MDV201_1144230FUSE"
8184                            (112)    1           7.2348 (   1.005) /_  -33.1
------------
1144230                         (113)    1           7.2348 (   1.005) /_  -33.1

ELEMENT = "Line.MDV201_HN_2_105_ABC39582"
39595                           (114)    1           7.1556 (  0.9939) /_  -33.3
39595                           (115)    2           7.1151 (  0.9883) /_ -154.4
39595                           (116)    3           7.2769 (   1.011) /_   86.3
------------
39582                           (117)    1           7.1539 (  0.9937) /_  -33.3
39582                           (118)    2           7.1098 (  0.9875) /_ -154.4
39582                           (119)    3           7.2759 (   1.011) /_   86.3

ELEMENT = "Line.MDV201_DA_8_691_B46386"
46385                           (120)    1           7.1916 (  0.9989) /_ -153.8
------------
46386                           (121)    1           7.1907 (  0.9988) /_ -153.8

ELEMENT = "Line.MDV201_HN_2_457_C62244"
106884                          (122)    1           7.2174 (   1.002) /_   86.2
------------
62244                           ( 12)    1           7.2168 (   1.002) /_   86.2

ELEMENT = "Line.C_1P038_SW"
1160493                         (123)    1           7.1684 (  0.9957) /_  -33.3
------------
MDV201_8075ELB_INT              (124)    1           7.1684 (  0.9957) /_  -33.3

ELEMENT = "Line.MDV201_8075ELB"
MDV201_8075ELB_INT              (124)    1           7.1684 (  0.9957) /_  -33.3
------------
8075                            (125)    1           7.1684 (  0.9957) /_  -33.3

ELEMENT = "Line.C_1P032_SW"
69460                           (126)    1            7.165 (  0.9952) /_  -33.3
------------
MDV201_107997ELB_INT            (127)    1            7.165 (  0.9952) /_  -33.3

ELEMENT = "Line.MDV201_107997ELB"
MDV201_107997ELB_INT            (127)    1            7.165 (  0.9952) /_  -33.3
------------
107997                          (128)    1            7.165 (  0.9952) /_  -33.3

ELEMENT = "Line.MDV201_HN_2_949_C8180"
8176                            (111)    1           7.1959 (  0.9995) /_   86.1
------------
8180                            (129)    1           7.1958 (  0.9995) /_   86.1

ELEMENT = "Line.MDV201_C_1P024_A8100"
1160461                         (130)    1           7.1776 (   0.997) /_  -33.3
------------
8100                            (131)    1           7.1761 (  0.9967) /_  -33.3

ELEMENT = "Line.MDV201_HN_2_166_C33824"
39776                           (132)    1           7.2318 (   1.004) /_   86.2
------------
33824                           (133)    1           7.2312 (   1.004) /_   86.2

ELEMENT = "Line.MDV201_HN_2_827_A14873"
1140227                         (134)    1           7.2404 (   1.006) /_  -33.2
------------
14873                           (135)    1           7.2403 (   1.006) /_  -33.2

ELEMENT = "Line.HN_2P017_SW"
1160488                         (136)    1           7.2246 (   1.003) /_ -153.7
------------
MDV201_62249ELB_INT             (137)    1           7.2246 (   1.003) /_ -153.7

ELEMENT = "Line.MDV201_62249ELB"
MDV201_62249ELB_INT             (137)    1           7.2246 (   1.003) /_ -153.7
------------
62249                           (138)    1           7.2246 (   1.003) /_ -153.7

ELEMENT = "Line.MDV201_HN_2_397_B63634"
107106                          (139)    1           7.2364 (   1.005) /_ -153.8
------------
63634                           (140)    1           7.2353 (   1.005) /_ -153.8

ELEMENT = "Line.MDV201_C_1P037_A1160467"
1160494                         (141)    1           7.1683 (  0.9957) /_  -33.3
------------
1160467                         (142)    1           7.1678 (  0.9956) /_  -33.3

ELEMENT = "Line.MDV201_HN_2_280_A8185"
1144230                         (113)    1           7.2348 (   1.005) /_  -33.1
------------
8185                            (143)    1           7.2347 (   1.005) /_  -33.1

ELEMENT = "Line.MDV201_HN_2_794_ABC791"
796                             (144)    1           7.3538 (   1.021) /_  -32.6
796                             (145)    2            7.343 (    1.02) /_ -152.9
796                             (146)    3           7.3645 (   1.023) /_   87.4
------------
791                             (147)    1           7.3469 (    1.02) /_  -32.6
791                             (148)    2           7.3366 (   1.019) /_ -152.9
791                             (149)    3           7.3604 (   1.022) /_   87.4

ELEMENT = "Line.MDV201_HN_2_677_C62303"
62306                           (150)    1           7.1992 (  0.9999) /_   86.1
------------
62303                           (151)    1           7.1989 (  0.9999) /_   86.1

ELEMENT = "Line.MDV201_100478FUSE"
14839                           (152)    1           7.3149 (   1.016) /_   86.3
------------
100478                          (153)    1           7.3149 (   1.016) /_   86.3

ELEMENT = "Line.MDV201_HN_2_115_ABC58446"
58441                           (154)    1           7.1544 (  0.9937) /_  -33.3
58441                           (155)    2           7.1042 (  0.9868) /_ -154.3
58441                           (156)    3           7.2572 (   1.008) /_   86.2
------------
58446                           (157)    1           7.1544 (  0.9937) /_  -33.3
58446                           (158)    2           7.1041 (  0.9867) /_ -154.3
58446                           (159)    3           7.2563 (   1.008) /_   86.2

ELEMENT = "Line.MDV201_HN_2_895_B52515"
112112                          (160)    1           7.1065 (  0.9871) /_ -154.4
------------
52515                           (161)    1           7.1061 (   0.987) /_ -154.4

ELEMENT = "Line.MDV201_98795FUSE"
846                             (162)    1           7.2269 (   1.004) /_  -33.3
846                             (163)    2           7.2259 (   1.004) /_ -154.0
846                             (164)    3           7.2992 (   1.014) /_   86.5
------------
98795                           (165)    1           7.2269 (   1.004) /_  -33.3
98795                           (166)    2           7.2259 (   1.004) /_ -154.0
98795                           (167)    3           7.2992 (   1.014) /_   86.5

ELEMENT = "Line.MDV201_HN_2_246_B39602"
39623                           (168)    1            7.155 (  0.9938) /_ -154.2
------------
39602                           (169)    1           7.1545 (  0.9937) /_ -154.2

ELEMENT = "Line.MDV201_DA_8_149_ABC56778"
56777                           (170)    1           7.1795 (  0.9972) /_  -33.8
56777                           (171)    2           7.2185 (   1.003) /_ -153.8
56777                           (172)    3           7.1976 (  0.9997) /_   86.1
------------
56778                           (173)    1           7.1798 (  0.9972) /_  -33.8
56778                           (174)    2           7.2159 (   1.002) /_ -153.8
56778                           (175)    3           7.1961 (  0.9995) /_   86.1

ELEMENT = "Line.MDV201_HN_2_083_ABC62239"
44586                           (176)    1           7.2279 (   1.004) /_  -33.5
44586                           (177)    2           7.2256 (   1.004) /_ -153.6
44586                           (178)    3           7.2202 (   1.003) /_   86.2
------------
62239                           (179)    1           7.2264 (   1.004) /_  -33.6
62239                           (180)    2           7.2253 (   1.004) /_ -153.6
62239                           (181)    3           7.2193 (   1.003) /_   86.2

ELEMENT = "Line.MDV201_DA_8_145_ABC46393"
46394                           (182)    1           7.1818 (  0.9975) /_  -33.8
46394                           (183)    2            7.205 (   1.001) /_ -153.8
46394                           (184)    3           7.1884 (  0.9985) /_   86.0
------------
46393                           (185)    1           7.1818 (  0.9975) /_  -33.8
46393                           (186)    2            7.205 (   1.001) /_ -153.8
46393                           (187)    3           7.1884 (  0.9985) /_   86.0

ELEMENT = "Line.MDV201_HN_2_729_B28246"
1144254                         (188)    1            7.244 (   1.006) /_ -153.7
------------
28246                           (189)    1           7.2439 (   1.006) /_ -153.7

ELEMENT = "Line.MDV201_HN_2_954_B39771"
14996                           (190)    1            7.028 (  0.9762) /_ -154.4
------------
39771                           (191)    1           7.0278 (  0.9761) /_ -154.4

ELEMENT = "Line.MDV201_108776FUSE"
74432                           (192)    1           7.1805 (  0.9974) /_  -33.8
------------
108776                          (193)    1           7.1805 (  0.9974) /_  -33.8

ELEMENT = "Line.HN_2P028_SW"
1160489                         (194)    1           7.2922 (   1.013) /_  -33.0
------------
MDV201_795ELB_INT               (195)    1           7.2922 (   1.013) /_  -33.0

ELEMENT = "Line.MDV201_795ELB"
MDV201_795ELB_INT               (195)    1           7.2922 (   1.013) /_  -33.0
------------
795                             (196)    1           7.2922 (   1.013) /_  -33.0

ELEMENT = "Line.MDV201_1140227FUSE"
14879                           (197)    1           7.2404 (   1.006) /_  -33.2
------------
1140227                         (134)    1           7.2404 (   1.006) /_  -33.2

ELEMENT = "Line.MDV201_HN_2_488_C8103"
8099                            (198)    1           7.3005 (   1.014) /_   86.5
------------
8103                            (199)    1              7.3 (   1.014) /_   86.5

ELEMENT = "Line.MDV201_DA_8_917_A56768"
1000983                         (200)    1           7.1793 (  0.9972) /_  -33.8
------------
56768                           (201)    1           7.1778 (   0.997) /_  -33.8

ELEMENT = "Line.MDV201_HN_2_029_ABC62262"
62265                           (202)    1           7.2141 (   1.002) /_  -33.6
62265                           (203)    2           7.2238 (   1.003) /_ -153.7
62265                           (204)    3           7.2141 (   1.002) /_   86.2
------------
62262                           (205)    1           7.2109 (   1.002) /_  -33.6
62262                           (206)    2           7.2238 (   1.003) /_ -153.7
62262                           (207)    3           7.2129 (   1.002) /_   86.2

ELEMENT = "Line.MDV201_HN_2_955_B39752"
39771                           (191)    1           7.0278 (  0.9761) /_ -154.4
------------
39752                           (208)    1           7.0276 (  0.9761) /_ -154.4

ELEMENT = "Line.MDV201_DA_8_215_B1017348"
1017350                         (209)    1           7.0263 (  0.9759) /_ -154.4
------------
1017348                         (210)    1           7.0256 (  0.9758) /_ -154.4

ELEMENT = "Line.MDV201_DA_8_678_A56764"
56760                           (211)    1           7.1823 (  0.9976) /_  -33.8
------------
56764                           (212)    1           7.1819 (  0.9975) /_  -33.8

ELEMENT = "Line.MDV201_HN_2_834_B39617"
39620                           (213)    1           7.1618 (  0.9948) /_ -154.2
------------
39617                           (214)    1           7.1614 (  0.9947) /_ -154.2

ELEMENT = "Line.MDV201_HN_2_906_A39580"
39589                           (215)    1           7.1514 (  0.9933) /_  -33.3
------------
39580                           (216)    1           7.1513 (  0.9933) /_  -33.3

ELEMENT = "Line.MDV201_DA_8_734_C74440"
74446                           (217)    1           7.1463 (  0.9926) /_   85.9
------------
74440                           (218)    1            7.146 (  0.9926) /_   85.9

ELEMENT = "Line.MDV201_DA_8_157_ABC58429"
58430                           (219)    1           7.1835 (  0.9978) /_  -33.8
58430                           (220)    2           7.2042 (   1.001) /_ -153.8
58430                           (221)    3           7.1842 (  0.9979) /_   86.0
------------
58429                           (222)    1           7.1842 (  0.9979) /_  -33.8
58429                           (223)    2           7.2039 (   1.001) /_ -153.8
58429                           (224)    3           7.1825 (  0.9976) /_   86.0

ELEMENT = "Line.MDV201_HN_2_605_A21655"
28213                           (225)    1           7.2233 (   1.003) /_  -33.3
------------
21655                           (226)    1           7.2218 (   1.003) /_  -33.3

ELEMENT = "Line.MDV201_HN_2_636_AC28249"
63666                           (227)    1            7.245 (   1.006) /_  -33.3
63666                           (228)    2           7.3062 (   1.015) /_   86.5
------------
28249                           (229)    1            7.243 (   1.006) /_  -33.3
28249                           (230)    2           7.3058 (   1.015) /_   86.5

ELEMENT = "Line.MDV201_HN_2_705_ABC52524"
105409                          (231)    1           7.2424 (   1.006) /_  -33.2
105409                          (232)    2           7.2155 (   1.002) /_ -154.0
105409                          (233)    3            7.307 (   1.015) /_   86.4
------------
52524                           (234)    1           7.2416 (   1.006) /_  -33.2
52524                           (235)    2            7.213 (   1.002) /_ -154.0
52524                           (236)    3           7.3078 (   1.015) /_   86.4

ELEMENT = "Line.MDV201_DA_8_928_A39733"
74424                           (237)    1           7.1615 (  0.9947) /_  -33.9
------------
39733                           (238)    1           7.1603 (  0.9945) /_  -33.9

ELEMENT = "Line.MDV201_HN_2_383_ABC8113"
8111                            (239)    1           7.2322 (   1.005) /_  -33.3
8111                            (240)    2           7.2245 (   1.003) /_ -154.0
8111                            (241)    3           7.3009 (   1.014) /_   86.5
------------
8113                            ( 58)    1            7.231 (   1.004) /_  -33.3
8113                            ( 59)    2           7.2248 (   1.004) /_ -154.0
8113                            ( 60)    3           7.3002 (   1.014) /_   86.5

ELEMENT = "Line.MDV201_HN_2_803_B837"
836                             (242)    1           7.1613 (  0.9947) /_ -154.2
------------
837                             (243)    1           7.1598 (  0.9945) /_ -154.2

ELEMENT = "Line.SW-HN_2_793_SW"
1023346                         (244)    1           7.3544 (   1.022) /_  -32.6
1023346                         (245)    2           7.3436 (    1.02) /_ -152.9
1023346                         (246)    3            7.365 (   1.023) /_   87.4
------------
MDV201_796USD_INT               (247)    1           7.3539 (   1.021) /_  -32.6
MDV201_796USD_INT               (248)    2           7.3431 (    1.02) /_ -152.9
MDV201_796USD_INT               (249)    3           7.3646 (   1.023) /_   87.4

ELEMENT = "Line.MDV201_796USD"
MDV201_796USD_INT               (247)    1           7.3539 (   1.021) /_  -32.6
MDV201_796USD_INT               (248)    2           7.3431 (    1.02) /_ -152.9
MDV201_796USD_INT               (249)    3           7.3646 (   1.023) /_   87.4
------------
796                             (144)    1           7.3538 (   1.021) /_  -32.6
796                             (145)    2            7.343 (    1.02) /_ -152.9
796                             (146)    3           7.3645 (   1.023) /_   87.4

ELEMENT = "Line.MDV201_HN_1_332_C28263"
28262                           (250)    1           7.2414 (   1.006) /_   86.2
------------
28263                           (251)    1           7.2414 (   1.006) /_   86.2

ELEMENT = "Line.MDV201_HN_2_890_B52521"
52519                           (252)    1           7.0828 (  0.9838) /_ -154.5
------------
52521                           (253)    1           7.0824 (  0.9837) /_ -154.5

ELEMENT = "Line.MDV201_HN_2_377_ABC28196"
28199                           (254)    1           7.2268 (   1.004) /_  -33.3
28199                           (255)    2           7.2258 (   1.004) /_ -154.0
28199                           (256)    3           7.2992 (   1.014) /_   86.5
------------
28196                           (257)    1           7.2268 (   1.004) /_  -33.3
28196                           (258)    2           7.2258 (   1.004) /_ -154.0
28196                           (259)    3           7.2991 (   1.014) /_   86.5

ELEMENT = "Line.MDV201_HN_1_331_C28262"
28264                           (260)    1           7.2415 (   1.006) /_   86.2
------------
28262                           (250)    1           7.2414 (   1.006) /_   86.2

ELEMENT = "Line.MDV201_HN_2_628_C52531"
28229                           (261)    1            7.303 (   1.014) /_   86.5
------------
52531                           (262)    1           7.3028 (   1.014) /_   86.5

ELEMENT = "Line.MDV201_HN_2_964_A14870"
14869                           ( 99)    1           7.2479 (   1.007) /_  -33.3
------------
14870                           (263)    1           7.2462 (   1.006) /_  -33.3

ELEMENT = "Line.MDV201_DA_8_200_C46399"
46398                           (264)    1           7.1775 (  0.9969) /_   86.0
------------
46399                           (265)    1           7.1758 (  0.9967) /_   86.0

ELEMENT = "Line.MDV201_106895FUSE"
62264                           (266)    1           7.2239 (   1.003) /_ -153.7
------------
106895                          (267)    1           7.2239 (   1.003) /_ -153.7

ELEMENT = "Line.HN_2P054_SW"
1163442                         (268)    1           7.2124 (   1.002) /_   86.1
------------
MDV201_1163443ELB_INT           (269)    1           7.2124 (   1.002) /_   86.1

ELEMENT = "Line.MDV201_1163443ELB"
MDV201_1163443ELB_INT           (269)    1           7.2124 (   1.002) /_   86.1
------------
1163443                         (270)    1           7.2124 (   1.002) /_   86.1

ELEMENT = "Line.MDV201_DA_8_142_ABC6584"
99420                           (271)    1           7.1902 (  0.9987) /_  -33.8
99420                           (272)    2           7.2231 (   1.003) /_ -153.7
99420                           (273)    3           7.2045 (   1.001) /_   86.2
------------
6584                            ( 56)    1           7.1871 (  0.9983) /_  -33.8
6584                            (274)    2           7.2228 (   1.003) /_ -153.7
6584                            (275)    3           7.2032 (   1.001) /_   86.2

ELEMENT = "Line.MDV201_1144249FUSE"
14828                           (276)    1           7.3253 (   1.017) /_   86.3
------------
1144249                         (277)    1           7.3253 (   1.017) /_   86.3

ELEMENT = "Line.MDV201_HN_2_965_A63726"
14870                           (263)    1           7.2462 (   1.006) /_  -33.3
------------
63726                           (278)    1            7.245 (   1.006) /_  -33.3

ELEMENT = "Line.MDV201_C_1_410_A8131"
8134                            (279)    1            7.216 (   1.002) /_  -33.4
------------
8131                            (280)    1           7.2156 (   1.002) /_  -33.4

ELEMENT = "Line.MDV201_HN_2_463_C62234"
62232                           (281)    1           7.2146 (   1.002) /_   86.1
------------
62234                           (282)    1           7.2139 (   1.002) /_   86.1

ELEMENT = "Line.MDV201_HN_2_133_ABC8083"
841                             (283)    1           7.1989 (  0.9999) /_  -33.3
841                             (284)    2           7.1792 (  0.9972) /_ -154.1
841                             (285)    3           7.2824 (   1.012) /_   86.4
------------
8083                            (286)    1           7.1953 (  0.9994) /_  -33.3
8083                            (287)    2            7.175 (  0.9966) /_ -154.1
8083                            (288)    3           7.2827 (   1.012) /_   86.4

ELEMENT = "Line.MDV201_HN_2_840_B52518"
39579                           (289)    1            7.102 (  0.9864) /_ -154.4
------------
52518                           (290)    1           7.0994 (  0.9861) /_ -154.4

ELEMENT = "Line.MDV201_HN_2_808_ABC783"
782                             (291)    1           7.3312 (   1.018) /_  -32.7
782                             (292)    2           7.3217 (   1.017) /_ -153.1
782                             (293)    3           7.3518 (   1.021) /_   87.3
------------
783                             (294)    1           7.3245 (   1.017) /_  -32.8
783                             (295)    2           7.3152 (   1.016) /_ -153.1
783                             (296)    3           7.3484 (   1.021) /_   87.2

ELEMENT = "Line.MDV201_HN_2_608_A8133"
8132                            (297)    1           7.2146 (   1.002) /_  -33.4
------------
8133                            (298)    1           7.2146 (   1.002) /_  -33.4


ELEMENT = "Line.MDV201_C_1P032_1160490"
MDV201_C_1P032_1160490_INT      (299)    1           7.1753 (  0.9966) /_  -33.3
------------
1160490                         (300)    1           7.1753 (  0.9966) /_  -33.3

ELEMENT = "Line.MDV201_HN_2_077_C28274"
100477                          (301)    1           7.3149 (   1.016) /_   86.3
------------
28274                           (302)    1           7.3147 (   1.016) /_   86.3

ELEMENT = "Line.MDV201_HN_2_711_A63676"
63677                           (303)    1           7.2444 (   1.006) /_  -33.2
------------
63676                           (304)    1           7.2442 (   1.006) /_  -33.2

ELEMENT = "Line.MDV201_HN_2_923_C28266"
102184                          (305)    1           7.2365 (   1.005) /_   86.2
------------
28266                           (306)    1           7.2365 (   1.005) /_   86.2

ELEMENT = "Line.MDV201_HN_21041_C39773"
39772                           (307)    1           7.2318 (   1.004) /_   86.2
------------
39773                           (308)    1           7.2317 (   1.004) /_   86.2

ELEMENT = "Line.MDV201_HN_2_644_A28238"
28241                           (309)    1           7.2389 (   1.005) /_  -33.3
------------
28238                           (310)    1           7.2381 (   1.005) /_  -33.3

ELEMENT = "Line.MDV201_1144260FUSE"
848                             (311)    1           7.1676 (  0.9956) /_ -154.2
------------
1144260                         (312)    1           7.1676 (  0.9956) /_ -154.2

ELEMENT = "Line.MDV201_HN_2_539_C8098"
8095                            (313)    1           7.2778 (   1.011) /_   86.4
------------
8098                            (314)    1           7.2776 (   1.011) /_   86.4

ELEMENT = "Line.MDV201_HN_2_800_B850"
849                             (315)    1            7.164 (  0.9951) /_ -154.2
------------
850                             (316)    1           7.1632 (   0.995) /_ -154.2

ELEMENT = "Line.MDV201_HN_2_092_ABC63711"
63714                           (317)    1           7.2449 (   1.006) /_  -33.4
63714                           (318)    2           7.2393 (   1.006) /_ -153.7
63714                           (319)    3           7.2644 (   1.009) /_   86.4
------------
63711                           (320)    1           7.2421 (   1.006) /_  -33.4
63711                           (321)    2           7.2364 (   1.005) /_ -153.7
63711                           (322)    3           7.2561 (   1.008) /_   86.4

ELEMENT = "Line.MDV201_HN_2P014_B1160485"
1160484                         (323)    1            7.019 (  0.9749) /_ -154.4
------------
1160485                         (324)    1           7.0187 (  0.9749) /_ -154.4

ELEMENT = "Line.MDV201_C_1_412_A8128"
8127                            (325)    1           7.2153 (   1.002) /_  -33.4
------------
8128                            (326)    1            7.215 (   1.002) /_  -33.4

ELEMENT = "Line.MDV201_HN_2_533_A8117"
8119                            (327)    1           7.1913 (  0.9988) /_  -33.4
------------
8117                            (328)    1           7.1911 (  0.9988) /_  -33.4

ELEMENT = "Line.MDV201_HN_2_970_A63710"
63709                           (329)    1           7.2422 (   1.006) /_  -33.3
------------
63710                           (330)    1            7.242 (   1.006) /_  -33.3

ELEMENT = "Line.MDV201_C_1_400_A21653"
21654                           (331)    1           7.2209 (   1.003) /_  -33.4
------------
21653                           (332)    1           7.2198 (   1.003) /_  -33.4

ELEMENT = "Line.MDV201_HN_2_124_C63703"
63708                           (333)    1           7.2991 (   1.014) /_   86.4
------------
63703                           (334)    1           7.2983 (   1.014) /_   86.4

ELEMENT = "Line.MDV201_106254FUSE"
58411                           (335)    1           7.1841 (  0.9979) /_  -33.8
------------
106254                          (336)    1           7.1841 (  0.9979) /_  -33.8

ELEMENT = "Line.MDV201_HN_1_380_C1012407"
1012405                         (337)    1           7.2557 (   1.008) /_   86.2
------------
1012407                         (338)    1           7.2556 (   1.008) /_   86.2

ELEMENT = "Line.MDV201_HN_2_381_ABC1010731"
810                             (339)    1           7.2349 (   1.005) /_  -33.3
810                             (340)    2           7.2238 (   1.003) /_ -154.0
810                             (341)    3           7.3038 (   1.014) /_   86.5
------------
1010731                         (342)    1           7.2339 (   1.005) /_  -33.3
1010731                         (343)    2            7.224 (   1.003) /_ -154.0
1010731                         (344)    3           7.3024 (   1.014) /_   86.5

ELEMENT = "Line.MDV201_DA_8_732_C74453"
39745                           (345)    1           7.1475 (  0.9928) /_   85.9
------------
74453                           (346)    1           7.1467 (  0.9927) /_   85.9

ELEMENT = "Line.MDV201_DA_8_144_ABC6582"
6580                            (347)    1           7.1918 (  0.9989) /_  -33.7
6580                            (348)    2           7.2232 (   1.003) /_ -153.7
6580                            (349)    3           7.2052 (   1.001) /_   86.2
------------
6582                            (350)    1           7.1903 (  0.9987) /_  -33.8
6582                            (351)    2           7.2231 (   1.003) /_ -153.7
6582                            (352)    3           7.2046 (   1.001) /_   86.2

ELEMENT = "Line.MDV201_HN_1_147_C1012412"
1012405                         (337)    1           7.2557 (   1.008) /_   86.2
------------
1012412                         (353)    1           7.2555 (   1.008) /_   86.2

ELEMENT = "Line.MDV201_HN_2_846_B69620"
69622                           (354)    1           7.0898 (  0.9848) /_ -154.4
------------
69620                           (355)    1           7.0882 (  0.9845) /_ -154.5

ELEMENT = "Line.MDV201_HN_2_814_ABC14891"
63654                           (356)    1           7.2621 (   1.009) /_  -33.2
63654                           (357)    2           7.2527 (   1.007) /_ -153.7
63654                           (358)    3           7.3033 (   1.014) /_   86.6
------------
14891                           (359)    1           7.2581 (   1.008) /_  -33.2
14891                           (360)    2             7.25 (   1.007) /_ -153.7
14891                           (361)    3            7.295 (   1.013) /_   86.6

ELEMENT = "Line.MDV201_DA_8_868_B1103250"
56756                           (362)    1           7.0259 (  0.9759) /_ -154.4
------------
1103250                         (363)    1           7.0259 (  0.9759) /_ -154.4

ELEMENT = "Line.MDV201_1017350FUSE"
6581                            (364)    1           7.0263 (  0.9759) /_ -154.4
------------
1017350                         (209)    1           7.0263 (  0.9759) /_ -154.4

ELEMENT = "Line.MDV201_HN_2_719_C14872"
14876                           (365)    1           7.2991 (   1.014) /_   86.4
------------
14872                           (366)    1            7.299 (   1.014) /_   86.4

ELEMENT = "Line.MDV201_HN_2_930_B62301"
1144245                         (367)    1           7.1242 (  0.9895) /_ -154.4
------------
62301                           (368)    1           7.1242 (  0.9895) /_ -154.4

ELEMENT = "Line.MDV201_HN_2_407_B809"
806                             (369)    1           7.2298 (   1.004) /_ -153.8
------------
809                             (370)    1           7.2283 (   1.004) /_ -153.8

ELEMENT = "Line.MDV201_HN_2_650_A28242"
28248                           (371)    1           7.2389 (   1.005) /_  -33.3
------------
28242                           (372)    1           7.2387 (   1.005) /_  -33.3

ELEMENT = "Line.MDV201_DA_8_492_ABC74428"
74420                           (373)    1           7.1804 (  0.9973) /_  -33.8
74420                           (374)    2           7.2118 (   1.002) /_ -153.8
74420                           (375)    3           7.1932 (  0.9991) /_   86.1
------------
74428                           (376)    1           7.1805 (  0.9974) /_  -33.8
74428                           (377)    2           7.2107 (   1.002) /_ -153.8
74428                           (378)    3           7.1924 (   0.999) /_   86.1

ELEMENT = "Line.MDV201_HN_2_151_C14833"
14831                           (379)    1           7.3235 (   1.017) /_   86.3
------------
14833                           (380)    1           7.3204 (   1.017) /_   86.3

ELEMENT = "Line.MDV201_HN_2_641_AC14893"
28251                           (381)    1           7.2415 (   1.006) /_  -33.3
28251                           (382)    2           7.3057 (   1.015) /_   86.5
------------
14893                           (383)    1           7.2399 (   1.006) /_  -33.3
14893                           (384)    2           7.3056 (   1.015) /_   86.5

ELEMENT = "Line.MDV201_DA_8_203_C46407"
74456                           (385)    1            7.168 (  0.9956) /_   86.0
------------
46407                           (386)    1           7.1643 (  0.9951) /_   86.0

ELEMENT = "Line.MDV201_HN_1_172_A94737"
94736                           (387)    1           7.1478 (  0.9928) /_  -33.3
------------
94737                           (388)    1           7.1477 (  0.9928) /_  -33.3

ELEMENT = "Line.MDV201_HN_1_165_C89780"
89779                           (389)    1           7.2543 (   1.008) /_   86.2
------------
89780                           (390)    1           7.2541 (   1.008) /_   86.2

ELEMENT = "Line.MDV201_HN_2_127_C63708"
100480                          (391)    1           7.2996 (   1.014) /_   86.4
------------
63708                           (333)    1           7.2991 (   1.014) /_   86.4

ELEMENT = "Line.MDV201_PB_0928_A1000987"
1000988                         (392)    1           7.1931 (  0.9991) /_  -33.3
------------
1000987                         (393)    1           7.1931 (  0.9991) /_  -33.3

ELEMENT = "Line.MDV201_HN_2_128_ABC28288"
28287                           (394)    1           7.1544 (  0.9937) /_  -33.3
28287                           (395)    2           7.1034 (  0.9866) /_ -154.3
28287                           (396)    3           7.2519 (   1.007) /_   86.2
------------
28288                           (397)    1           7.1547 (  0.9938) /_  -33.3
28288                           (398)    2            7.103 (  0.9866) /_ -154.3
28288                           (399)    3           7.2507 (   1.007) /_   86.2

ELEMENT = "Line.SW-HN_2_381_SW"
1010731                         (342)    1           7.2339 (   1.005) /_  -33.3
1010731                         (343)    2            7.224 (   1.003) /_ -154.0
1010731                         (344)    3           7.3024 (   1.014) /_   86.5
------------
MDV201_1010732USD_INT           (400)    1           7.2338 (   1.005) /_  -33.3
MDV201_1010732USD_INT           (401)    2            7.224 (   1.003) /_ -154.0
MDV201_1010732USD_INT           (402)    3           7.3023 (   1.014) /_   86.5

ELEMENT = "Line.MDV201_1010732USD"
MDV201_1010732USD_INT           (400)    1           7.2338 (   1.005) /_  -33.3
MDV201_1010732USD_INT           (401)    2            7.224 (   1.003) /_ -154.0
MDV201_1010732USD_INT           (402)    3           7.3023 (   1.014) /_   86.5
------------
1010732                         (403)    1           7.2338 (   1.005) /_  -33.3
1010732                         (404)    2            7.224 (   1.003) /_ -154.0
1010732                         (405)    3           7.3023 (   1.014) /_   86.5

ELEMENT = "Line.MDV201_1144262FUSE"
28226                           (406)    1           7.3062 (   1.015) /_   86.5
------------
1144262                         (407)    1           7.3062 (   1.015) /_   86.5

ELEMENT = "Line.MDV201_C_1_138_ABC1127424"
69477                           (107)    1           7.1629 (  0.9949) /_  -33.3
69477                           (108)    2           7.1333 (  0.9908) /_ -154.3
69477                           (109)    3           7.2809 (   1.011) /_   86.3
------------
1127424                         (408)    1           7.1629 (  0.9949) /_  -33.3
1127424                         (409)    2           7.1333 (  0.9908) /_ -154.3
1127424                         (410)    3           7.2809 (   1.011) /_   86.3

ELEMENT = "Line.MDV201_DA_8_234_ABC56762"
56751                           (411)    1           7.1833 (  0.9977) /_  -33.8
56751                           (412)    2           7.2217 (   1.003) /_ -153.8
56751                           (413)    3            7.201 (       1) /_   86.2
------------
56762                           (414)    1           7.1815 (  0.9975) /_  -33.8
56762                           (415)    2           7.2211 (   1.003) /_ -153.8
56762                           (416)    3           7.1998 (       1) /_   86.1

ELEMENT = "Line.MDV201_1144253FUSE"
6572                            (417)    1           7.0542 (  0.9798) /_ -154.4
------------
1144253                         (418)    1           7.0542 (  0.9798) /_ -154.4

ELEMENT = "Line.MDV201_HN_2_120_A28281"
28282                           (419)    1           7.1538 (  0.9936) /_  -33.3
------------
28281                           (420)    1           7.1532 (  0.9936) /_  -33.3

ELEMENT = "Line.MDV201_HN_1_274_A94747"
94743                           ( 10)    1           7.1474 (  0.9928) /_  -33.3
------------
94747                           (421)    1           7.1474 (  0.9928) /_  -33.3

ELEMENT = "Line.MDV201_HN_2_852_B39588"
52519                           (252)    1           7.0828 (  0.9838) /_ -154.5
------------
39588                           (422)    1           7.0823 (  0.9837) /_ -154.5

ELEMENT = "Line.MDV201_HN_2_820_B39623"
39621                           (423)    1           7.1556 (  0.9939) /_ -154.2
------------
39623                           (168)    1            7.155 (  0.9938) /_ -154.2

ELEMENT = "Line.MDV201_C_1_506_A8143"
1010738                         (424)    1            7.181 (  0.9974) /_  -33.3
------------
8143                            (425)    1           7.1801 (  0.9973) /_  -33.3

ELEMENT = "Line.MDV201_DA_8_216_B1017349"
1017348                         (210)    1           7.0256 (  0.9758) /_ -154.4
------------
1017349                         (426)    1           7.0253 (  0.9758) /_ -154.4

ELEMENT = "Line.MDV201_HN_2_291_ABC63681"
63680                           (427)    1           7.2478 (   1.007) /_  -33.3
63680                           (428)    2           7.2356 (   1.005) /_ -153.9
63680                           (429)    3           7.3081 (   1.015) /_   86.5
------------
63681                           (430)    1           7.2467 (   1.007) /_  -33.3
63681                           (431)    2           7.2329 (   1.005) /_ -153.9
63681                           (432)    3           7.3076 (   1.015) /_   86.5

ELEMENT = "Line.MDV201_106259FUSE"
58431                           (433)    1           7.1811 (  0.9974) /_   86.0
------------
106259                          (434)    1           7.1811 (  0.9974) /_   86.0

ELEMENT = "Line.MDV201_HN_2_382_ABC823"
1010732                         (403)    1           7.2338 (   1.005) /_  -33.3
1010732                         (404)    2            7.224 (   1.003) /_ -154.0
1010732                         (405)    3           7.3023 (   1.014) /_   86.5
------------
823                             (435)    1           7.2333 (   1.005) /_  -33.3
823                             (436)    2           7.2242 (   1.003) /_ -154.0
823                             (437)    3           7.3016 (   1.014) /_   86.5

ELEMENT = "Line.MDV201_HN_2_821_B39618"
39621                           (423)    1           7.1556 (  0.9939) /_ -154.2
------------
39618                           (438)    1           7.1553 (  0.9939) /_ -154.2

ELEMENT = "Line.MDV201_HN_2_927_C94731"
1140226                         (439)    1           7.3006 (   1.014) /_   86.4
------------
94731                           (440)    1           7.3004 (   1.014) /_   86.4

ELEMENT = "Line.MDV201_HN_2_235_ABC854"
28186                           (441)    1           7.2266 (   1.004) /_  -33.3
28186                           (442)    2           7.2256 (   1.004) /_ -154.0
28186                           (443)    3            7.299 (   1.014) /_   86.5
------------
854                             (444)    1           7.2266 (   1.004) /_  -33.3
854                             (445)    2           7.2256 (   1.004) /_ -154.0
854                             (446)    3            7.299 (   1.014) /_   86.5

ELEMENT = "Line.MDV201_HN_2_306_ABC28286"
28284                           (447)    1           7.1544 (  0.9937) /_  -33.3
28284                           (448)    2           7.1037 (  0.9867) /_ -154.3
28284                           (449)    3           7.2541 (   1.008) /_   86.2
------------
28286                           (450)    1           7.1544 (  0.9937) /_  -33.3
28286                           (451)    2           7.1036 (  0.9867) /_ -154.3
28286                           (452)    3           7.2534 (   1.007) /_   86.2

ELEMENT = "Line.MDV201_C_1_411_A8127"
8131                            (280)    1           7.2156 (   1.002) /_  -33.4
------------
8127                            (325)    1           7.2153 (   1.002) /_  -33.4

ELEMENT = "Line.MDV201_HN_2_520_A8092"
8090                            (453)    1           7.1973 (  0.9997) /_  -33.3
------------
8092                            (454)    1            7.196 (  0.9995) /_  -33.3

ELEMENT = "Line.MDV201_HN_2_420_A814"
808                             (455)    1           7.2915 (   1.013) /_  -33.0
------------
814                             (456)    1           7.2908 (   1.013) /_  -33.0

ELEMENT = "Line.MDV201_HN_2_153_B14829"
14828                           (457)    1           7.1561 (   0.994) /_ -154.3
------------
14829                           (458)    1           7.1468 (  0.9927) /_ -154.3

ELEMENT = "Line.MDV201_HN_2_870_C831"
830                             (459)    1           7.2781 (   1.011) /_   86.4
------------
831                             (460)    1           7.2766 (   1.011) /_   86.4

ELEMENT = "Line.MDV201_C_1_354_B1008227"
1008229                         (461)    1           7.1334 (  0.9908) /_ -154.3
------------
1008227                         (462)    1           7.1334 (  0.9908) /_ -154.3

ELEMENT = "Line.MDV201_HN_21036_ABC28186"
28189                           (463)    1           7.2267 (   1.004) /_  -33.3
28189                           (464)    2           7.2256 (   1.004) /_ -154.0
28189                           (465)    3           7.2991 (   1.014) /_   86.5
------------
28186                           (441)    1           7.2266 (   1.004) /_  -33.3
28186                           (442)    2           7.2256 (   1.004) /_ -154.0
28186                           (443)    3            7.299 (   1.014) /_   86.5

ELEMENT = "Line.MDV201_DA_8_139_B56756"
6581                            (364)    1           7.0263 (  0.9759) /_ -154.4
------------
56756                           (362)    1           7.0259 (  0.9759) /_ -154.4

ELEMENT = "Line.MDV201_HN_2_422_A790"
785                             (466)    1           7.2948 (   1.013) /_  -33.0
------------
790                             (467)    1           7.2935 (   1.013) /_  -33.0

ELEMENT = "Line.HN_2P011_SW"
1160477                         (468)    1           7.0201 (  0.9751) /_ -154.4
------------
MDV201_15005ELB_INT             (469)    1             7.02 (  0.9751) /_ -154.4

ELEMENT = "Line.MDV201_15005ELB"
MDV201_15005ELB_INT             (469)    1             7.02 (  0.9751) /_ -154.4
------------
15005                           ( 45)    1             7.02 (  0.9751) /_ -154.4

ELEMENT = "Line.MDV201_1149717FUSE"
56778                           (173)    1           7.1798 (  0.9972) /_  -33.8
56778                           (174)    2           7.2159 (   1.002) /_ -153.8
56778                           (175)    3           7.1961 (  0.9995) /_   86.1
------------
1149717                         (470)    1           7.1798 (  0.9972) /_  -33.8
1149717                         (471)    2           7.2159 (   1.002) /_ -153.8
1149717                         (472)    3           7.1961 (  0.9995) /_   86.1

ELEMENT = "Line.MDV201_DA_8_218_B8204"
8205                            (473)    1           7.0247 (  0.9757) /_ -154.4
------------
8204                            (474)    1           7.0247 (  0.9757) /_ -154.4

ELEMENT = "Line.MDV201_HN_2_387_B804"
802                             (475)    1           7.2337 (   1.005) /_ -153.8
------------
804                             (476)    1           7.2334 (   1.005) /_ -153.8

ELEMENT = "Line.MDV201_HN_2_859_B94734"
94733                           (477)    1            7.085 (  0.9841) /_ -154.5
------------
94734                           (478)    1           7.0849 (  0.9841) /_ -154.5

ELEMENT = "Line.MDV201_HN_2_830_A14875"
14873                           (135)    1           7.2403 (   1.006) /_  -33.2
------------
14875                           (479)    1           7.2402 (   1.006) /_  -33.2

ELEMENT = "Line.MDV201_1012406FUSE"
58441                           (156)    1           7.2572 (   1.008) /_   86.2
------------
1012406                         (480)    1           7.2572 (   1.008) /_   86.2

ELEMENT = "Line.MDV201_HN_2_186_ABC15011"
39764                           (481)    1           7.2065 (   1.001) /_  -33.7
39764                           (482)    2           7.2237 (   1.003) /_ -153.7
39764                           (483)    3           7.2111 (   1.002) /_   86.2
------------
15011                           (484)    1            7.201 (       1) /_  -33.7
15011                           (485)    2           7.2235 (   1.003) /_ -153.7
15011                           (486)    3           7.2089 (   1.001) /_   86.2

ELEMENT = "Line.MDV201_HN_2_522_C855"
8087                            (487)    1           7.2794 (   1.011) /_   86.4
------------
855                             (488)    1            7.278 (   1.011) /_   86.4

ELEMENT = "Line.MDV201_108027FUSE"
69623                           (489)    1            7.263 (   1.009) /_   86.3
------------
108027                          (490)    1            7.263 (   1.009) /_   86.3

ELEMENT = "Line.MDV201_1010727FUSE"
63638                           (491)    1           7.2982 (   1.014) /_  -33.0
------------
1010727                         (492)    1           7.2982 (   1.014) /_  -33.0

ELEMENT = "Line.MDV201_HN_2_831_ABC39762"
39763                           (493)    1           7.2076 (   1.001) /_  -33.7
39763                           (494)    2           7.2237 (   1.003) /_ -153.7
39763                           (495)    3           7.2115 (   1.002) /_   86.2
------------
39762                           (496)    1           7.2076 (   1.001) /_  -33.7
39762                           (497)    2           7.2237 (   1.003) /_ -153.7
39762                           (498)    3           7.2115 (   1.002) /_   86.2

ELEMENT = "Line.MDV201_1145433FUSE"
89785                           (499)    1            7.254 (   1.008) /_   86.2
------------
1145433                         (500)    1            7.254 (   1.008) /_   86.2

ELEMENT = "Line.MDV201_HN_2_540_C8108"
8098                            (314)    1           7.2776 (   1.011) /_   86.4
------------
8108                            (501)    1           7.2775 (   1.011) /_   86.4

ELEMENT = "Line.MDV201_HN_2_653_A14878"
14881                           (502)    1           7.2366 (   1.005) /_  -33.3
------------
14878                           (503)    1           7.2365 (   1.005) /_  -33.3

ELEMENT = "Line.MDV201_C_1_083_B69488"
69485                           (504)    1            7.133 (  0.9908) /_ -154.3
------------
69488                           (505)    1           7.1329 (  0.9907) /_ -154.3

ELEMENT = "Line.MDV201_HN_2P016_B1160487"
1160482                         (506)    1           7.0184 (  0.9748) /_ -154.4
------------
1160487                         (507)    1           7.0181 (  0.9748) /_ -154.4

ELEMENT = "Line.MDV201_HN_2_223_B8168"
8169                            (508)    1           7.2326 (   1.005) /_ -153.7
------------
8168                            (509)    1           7.2324 (   1.005) /_ -153.7

ELEMENT = "Line.MDV201_1163441ELB-1_SW"
1163438                         (510)    1           7.2124 (   1.002) /_   86.1
------------
MDV201_1163441ELB_INT           (511)    1           7.2124 (   1.002) /_   86.1

ELEMENT = "Line.MDV201_1163441ELB"
MDV201_1163441ELB_INT           (511)    1           7.2124 (   1.002) /_   86.1
------------
1163441                         (512)    1           7.2124 (   1.002) /_   86.1

ELEMENT = "Line.MDV201_HN_2_731_B14852"
14851                           (513)    1           7.2438 (   1.006) /_ -153.7
------------
14852                           (514)    1           7.2437 (   1.006) /_ -153.7

ELEMENT = "Line.C_1P035_SW"
1160496                         (515)    1           7.1662 (  0.9954) /_  -33.3
------------
MDV201_8082ELB_INT              (516)    1           7.1662 (  0.9954) /_  -33.3

ELEMENT = "Line.MDV201_8082ELB"
MDV201_8082ELB_INT              (516)    1           7.1662 (  0.9954) /_  -33.3
------------
8082                            (517)    1           7.1662 (  0.9954) /_  -33.3

ELEMENT = "Line.MDV201_HN_2_064_C14871"
14848                           (518)    1           7.2998 (   1.014) /_   86.4
------------
14871                           (519)    1           7.2996 (   1.014) /_   86.4

ELEMENT = "Line.MDV201_HN_2_878_B1144266"
1144267                         (520)    1           7.2238 (   1.003) /_ -154.0
------------
1144266                         (521)    1           7.2235 (   1.003) /_ -154.0

ELEMENT = "Line.MDV201_HN_2_149_C28298"
28297                           (522)    1           7.3178 (   1.016) /_   86.3
------------
28298                           (523)    1           7.3164 (   1.016) /_   86.3

ELEMENT = "Line.MDV201_HN_1_177_C69626"
108027                          (490)    1            7.263 (   1.009) /_   86.3
------------
69626                           (524)    1           7.2629 (   1.009) /_   86.3

ELEMENT = "Line.MDV201_DA_8_809_C46402"
46400                           (525)    1           7.1758 (  0.9967) /_   86.0
------------
46402                           (526)    1           7.1757 (  0.9967) /_   86.0

ELEMENT = "Line.MDV201_1144263FUSE"
63684                           (527)    1           7.2455 (   1.006) /_  -33.2
------------
1144263                         (528)    1           7.2455 (   1.006) /_  -33.2

ELEMENT = "Line.MDV201_HN_2_868_C833"
1144261                         (529)    1           7.2818 (   1.011) /_   86.4
------------
833                             (530)    1           7.2795 (   1.011) /_   86.4

ELEMENT = "Line.MDV201_HN_2_836_B39616"
39615                           (531)    1            7.161 (  0.9946) /_ -154.2
------------
39616                           (532)    1           7.1609 (  0.9946) /_ -154.2

ELEMENT = "Line.MDV201_103731FUSE"
39611                           (533)    1           7.1587 (  0.9943) /_  -33.3
------------
103731                          (534)    1           7.1587 (  0.9943) /_  -33.3

...